*Heading
** Job name: beam-3d Model name: Model-1
** Generated by: Abaqus/CAE 2019
*Preprint, echo=NO, model=NO, history=NO, contact=NO
**
** PARTS
**
*Part, name=Part-1
*Node
      1,           1.,  0.100000001, 0.0199999996
      2,           1., 0.0799999982, 0.0199999996
      3,           1., 0.0599999987, 0.0199999996
      4,           1., 0.0399999991, 0.0199999996
      5,           1., 0.0199999996, 0.0199999996
      6,           1.,           0., 0.0199999996
      7,           1.,  0.100000001, 0.0160000008
      8,           1., 0.0799999982, 0.0160000008
      9,           1., 0.0599999987, 0.0160000008
     10,           1., 0.0399999991, 0.0160000008
     11,           1., 0.0199999996, 0.0160000008
     12,           1.,           0., 0.0160000008
     13,           1.,  0.100000001, 0.0120000001
     14,           1., 0.0799999982, 0.0120000001
     15,           1., 0.0599999987, 0.0120000001
     16,           1., 0.0399999991, 0.0120000001
     17,           1., 0.0199999996, 0.0120000001
     18,           1.,           0., 0.0120000001
     19,           1.,  0.100000001, 0.00800000038
     20,           1., 0.0799999982, 0.00800000038
** ... 1816 like lines cut
*Element, type=C3D8R
   1,   37,   38,   44,   43,    1,    2,    8,    7
   2,   38,   39,   45,   44,    2,    3,    9,    8
   3,   39,   40,   46,   45,    3,    4,   10,    9
   4,   40,   41,   47,   46,    4,    5,   11,   10
   5,   41,   42,   48,   47,    5,    6,   12,   11
   6,   43,   44,   50,   49,    7,    8,   14,   13
   7,   44,   45,   51,   50,    8,    9,   15,   14
   8,   45,   46,   52,   51,    9,   10,   16,   15
   9,   46,   47,   53,   52,   10,   11,   17,   16
  10,   47,   48,   54,   53,   11,   12,   18,   17
  11,   49,   50,   56,   55,   13,   14,   20,   19
  12,   50,   51,   57,   56,   14,   15,   21,   20
  13,   51,   52,   58,   57,   15,   16,   22,   21
  14,   52,   53,   59,   58,   16,   17,   23,   22
  15,   53,   54,   60,   59,   17,   18,   24,   23
  16,   55,   56,   62,   61,   19,   20,   26,   25
  17,   56,   57,   63,   62,   20,   21,   27,   26
  18,   57,   58,   64,   63,   21,   22,   28,   27
  19,   58,   59,   65,   64,   22,   23,   29,   28
  20,   59,   60,   66,   65,   23,   24,   30,   29
** ... 1230 like lines cut
*Nset, nset=_PickedSet2, internal, generate
    1,  1836,     1
*Elset, elset=_PickedSet2, internal, generate
    1,  1250,     1
** Section: Section-1
*Solid Section, elset=_PickedSet2, material=Material-Steel
,
*End Part
**  
**
** ASSEMBLY
**
*Assembly, name=Assembly
**  
*Instance, name=Part-1-1, part=Part-1
*End Instance
**  
*Nset, nset=_PickedSet4, internal, instance=Part-1-1, generate
 1801,  1836,     1
*Elset, elset=_PickedSet4, internal, instance=Part-1-1, generate
 1226,  1250,     1
*End Assembly
** 
** MATERIALS
** 
*Material, name=Material-Steel
*Density
7850.,
*Elastic
 2.1e+11, 0.3
** ----------------------------------------------------------------
** 
** STEP: Step-1
** 
*Step, name=Step-1, nlgeom=NO, perturbation
*Frequency, eigensolver=Lanczos, sim, acoustic coupling=on, normalization=mass
20, , , , , 
** 
** BOUNDARY CONDITIONS
** 
** Name: BC-1 Type: Symmetry/Antisymmetry/Encastre
*Boundary
_PickedSet4, ENCASTRE
** 
** OUTPUT REQUESTS
** 
*Restart, write, frequency=0
** 
** FIELD OUTPUT: F-Output-1
** 
*Output, field, variable=PRESELECT
*End Step
