*Heading
** Job name: beam2d Model name: Model-1
** Generated by: Abaqus/CAE 2019
*Preprint, echo=NO, model=NO, history=NO, contact=NO
**
** PARTS
**
*Part, name=Part-1
*Node
      1,           0.,           0.,           0.
      2, 0.0199999996,           0.,           0.
      3, 0.0399999991,           0.,           0.
      4, 0.0599999987,           0.,           0.
      5, 0.0799999982,           0.,           0.
      6,  0.100000001,           0.,           0.
      7,  0.119999997,           0.,           0.
      8,  0.140000001,           0.,           0.
      9,  0.159999996,           0.,           0.
     10,  0.180000007,           0.,           0.
     11,  0.200000003,           0.,           0.
     12,  0.219999999,           0.,           0.
     13,  0.239999995,           0.,           0.
     14,   0.25999999,           0.,           0.
     15,  0.280000001,           0.,           0.
     16,  0.300000012,           0.,           0.
     17,  0.319999993,           0.,           0.
     18,  0.340000004,           0.,           0.
     19,  0.360000014,           0.,           0.
     20,  0.379999995,           0.,           0.
** ... 286 like lines cut
*Element, type=S4R
  1,   1,   2,  53,  52
  2,   2,   3,  54,  53
  3,   3,   4,  55,  54
  4,   4,   5,  56,  55
  5,   5,   6,  57,  56
  6,   6,   7,  58,  57
  7,   7,   8,  59,  58
  8,   8,   9,  60,  59
  9,   9,  10,  61,  60
 10,  10,  11,  62,  61
 11,  11,  12,  63,  62
 12,  12,  13,  64,  63
 13,  13,  14,  65,  64
 14,  14,  15,  66,  65
 15,  15,  16,  67,  66
 16,  16,  17,  68,  67
 17,  17,  18,  69,  68
 18,  18,  19,  70,  69
 19,  19,  20,  71,  70
 20,  20,  21,  72,  71
** ... 230 like lines cut
*Nset, nset=_PickedSet2, internal, generate
   1,  306,    1
*Elset, elset=_PickedSet2, internal, generate
   1,  250,    1
** Section: Section-1
*Shell Section, elset=_PickedSet2, material=Material-Steel
0.02, 5
*End Part
**  
**
** ASSEMBLY
**
*Assembly, name=Assembly
**  
*Instance, name=Part-1-1, part=Part-1
*End Instance
**  
*Nset, nset=_PickedSet4, internal, instance=Part-1-1, generate
   1,  256,   51
*Elset, elset=_PickedSet4, internal, instance=Part-1-1, generate
   1,  201,   50
*End Assembly
** 
** MATERIALS
** 
*Material, name=Material-Steel
*Density
7850.,
*Elastic
 2.1e+11, 0.3
** 
** BOUNDARY CONDITIONS
** 
** Name: BC-1 Type: Symmetry/Antisymmetry/Encastre
*Boundary
_PickedSet4, ENCASTRE
** ----------------------------------------------------------------
** 
** STEP: Step-1
** 
*Step, name=Step-1, nlgeom=NO, perturbation
*Frequency, eigensolver=Lanczos, sim, acoustic coupling=on, normalization=mass
20, , , , , 
** 
** OUTPUT REQUESTS
** 
*Restart, write, frequency=0
** 
** FIELD OUTPUT: F-Output-1
** 
*Output, field, variable=PRESELECT
*End Step
