*Heading
** Job name: Job-cylinder Model name: Model-1
** Generated by: Abaqus/CAE 6.14-2
*Preprint, echo=NO, model=NO, history=NO, contact=NO
**
** PARTS
**
*Part, name=Part-1
*Node
      1,  0.995030761, -0.0995678455,           4.
      2,  0.980172515,  -0.19814615,           4.
      3,  0.955572784, -0.294755161,           4.
      4,  0.921476185, -0.388434798,           4.
      5,  0.878221571,  -0.47825399,           4.
      6,  0.826238751, -0.563320041,           4.
      7,  0.766044438, -0.642787635,           4.
      8,  0.698236823, -0.715866864,           4.
      9,  0.623489797, -0.781831503,           4.
     10,  0.542546272, -0.840025902,           4.
     11,  0.456210643, -0.889871836,           4.
     12,  0.365341038, -0.930873752,           4.
     13,  0.270840466, -0.962624252,           4.
     14,  0.173648179,  -0.98480773,           4.
     15, 0.0747300908, -0.997203827,           4.
     16, -0.0249306913, -0.999689162,           4.
     17, -0.124343708, -0.992239177,           4.
     18, -0.222520933, -0.974927902,           4.
     19, -0.318486661, -0.947927356,           4.
     20, -0.411287099, -0.911505878,           4.
** ... 2563 like lines cut
*Element, type=S4R
   1,   63,    1,   64,  126
   2,    1,    2,   65,   64
   3,    2,    3,   66,   65
   4,    3,    4,   67,   66
   5,    4,    5,   68,   67
   6,    5,    6,   69,   68
   7,    6,    7,   70,   69
   8,    7,    8,   71,   70
   9,    8,    9,   72,   71
  10,    9,   10,   73,   72
  11,   10,   11,   74,   73
  12,   11,   12,   75,   74
  13,   12,   13,   76,   75
  14,   13,   14,   77,   76
  15,   14,   15,   78,   77
  16,   15,   16,   79,   78
  17,   16,   17,   80,   79
  18,   17,   18,   81,   80
  19,   18,   19,   82,   81
  20,   19,   20,   83,   82
** ... 2500 like lines cut
*Nset, nset=_PickedSet2, internal, generate
    1,  2583,     1
*Elset, elset=_PickedSet2, internal, generate
    1,  2520,     1
** Section: Section-1
*Shell Section, elset=_PickedSet2, material=Material-steel
0.01, 5
*End Part
**  
**
** ASSEMBLY
**
*Assembly, name=Assembly
**  
*Instance, name=Part-1-1, part=Part-1
*End Instance
**  
*End Assembly
** 
** MATERIALS
** 
*Material, name=Material-steel
*Density
7800.,
*Elastic
 2.1e+11, 0.3
** ----------------------------------------------------------------
** 
** STEP: Step-1
** 
*Step, name=Step-1, nlgeom=NO, perturbation
*Frequency, eigensolver=Lanczos, acoustic coupling=on, normalization=displacement
40, , , , , 
** 
** OUTPUT REQUESTS
** 
*Restart, write, frequency=0
** 
** FIELD OUTPUT: F-Output-1
** 
*Output, field, variable=PRESELECT
*End Step
