*Heading
** Job name: Job-strange-shell Model name: Model-1
** Generated by: Abaqus/CAE 6.14-2
*Preprint, echo=NO, model=NO, history=NO, contact=NO
**
** PARTS
**
*Part, name=Part-1
*Node
      1, -0.600000024,         -1.5,           0.
      2,  -1.39999998,         -1.5,           0.
      3,   1.39999998,          -1.,           0.
      4,  0.600000024,          -1.,           0.
      5,  -1.79999995,  -1.10000002,           0.
      6,   1.79999995, -0.600000024,           0.
      7,  -1.20000005,         -0.5,           0.
      8,   1.20000005,           0.,           0.
      9, -0.600000024,  0.100000001,           0.
     10,  0.600000024,  0.600000024,           0.
     11, -0.600000024,  0.899999976,           0.
     12,  0.600000024,   1.39999998,           0.
     13, -0.649999976,         -1.5,           0.
     14, -0.699999988,         -1.5,           0.
     15,        -0.75,         -1.5,           0.
     16, -0.800000012,         -1.5,           0.
     17, -0.850000024,         -1.5,           0.
     18, -0.899999976,         -1.5,           0.
     19, -0.949999988,         -1.5,           0.
     20,          -1.,         -1.5,           0.
** ... 4982 like lines cut
*Element, type=S4R
  1,    1,   13,  519,  160
  2,   13,   14,  520,  519
  3,   14,   15,  521,  520
  4,   15,   16,  522,  521
  5,   16,   17,  523,  522
  6,   17,   18,  524,  523
  7,   18,   19,  525,  524
  8,   19,   20,  526,  525
  9,   20,   21,  527,  526
 10,   21,   22,  528,  527
 11,   22,   23,  529,  528
 12,   23,   24,  530,  529
 13,   24,   25,  531,  530
 14,   25,   26,  532,  531
 15,   26,   27,  533,  532
 16,   27,    2,   28,  533
 17,  160,  519,  534,  159
 18,  519,  520,  535,  534
 19,  520,  521,  536,  535
 20,  521,  522,  537,  536
** ... 4840 like lines cut
*Nset, nset=_PickedSet2, internal, generate
    1,  5002,     1
*Elset, elset=_PickedSet2, internal, generate
    1,  4860,     1
** Section: Section-1
*Shell Section, elset=_PickedSet2, material=Material-steel
0.01, 5
*End Part
**  
**
** ASSEMBLY
**
*Assembly, name=Assembly
**  
*Instance, name=Part-1-1, part=Part-1
*End Instance
**  
*End Assembly
** 
** MATERIALS
** 
*Material, name=Material-steel
*Density
7800.,
*Elastic
 2.1e+11, 0.3
** ----------------------------------------------------------------
** 
** STEP: Step-1
** 
*Step, name=Step-1, nlgeom=NO, perturbation
*Frequency, eigensolver=Lanczos, acoustic coupling=on, normalization=displacement
50, , , , , 
** 
** OUTPUT REQUESTS
** 
*Restart, write, frequency=0
** 
** FIELD OUTPUT: F-Output-1
** 
*Output, field, variable=PRESELECT
*End Step
